!New "Generator.test" bus1=671 daily=loadshape1 model=1 phases=1 conn=wye kv=2.4018 kW=1800 pf=1
New "Generator.test" bus1=671 model=1 phases=1 kv=2.4018 kW=100 kvar=0
