New "LoadShape.default" interval=1 npts=24 mult=[ 0.677 0.6256 0.6087 0.5833 0.58028 0.6025 0.657 0.7477 0.832 0.88 0.94 0.989 0.985 0.98 0.9898 0.999 1 0.958 0.936 0.913 0.876 0.876 0.828 0.756]
New "LoadShape.shape1" interval=1 npts=24 mult=[ 0.1 0.19 0.23 0.33 0.3 0.41 0.64 1.23 1 1 1.96 1.9 1.45 1.62 1 1.79 1.7 1.19 0 0.66 0.51 0.4 0.2 0.23]
New "LoadShape.loadshape1" interval=1 npts=24 mult=[ 30 100 200 400 500 500 500 500 500 500 500 500 500 100 200 300 500 500 500 500 500 0 0 0]
