New "Transformer.sub" windings=2 Xhl=0.008 buses=[sourcebus, 650, ] conns=[wye, wye, ] kVs=[66.395, 2.4018, ] kVAs=[1666.7, 1666.7, ] taps=[1, 1, ] wdg=1 %R=0.0005 wdg=2 %R=0.0005 phases=1 conns=[wye, wye, ] buses=[sourcebus, 650, ] kVs=[66.395, 2.4018, ] kVAs=[1666.7, 1666.7, ] normhkVA=1833.3 emerghkVA=2500
New "Transformer.reg1" bank=reg1 Xhl=0.01 %loadloss=0.01 taps=[1, 1.0625, ] phases=1 conns=[wye, wye, ] buses=[650, rg60, ] kVs=[2.4, 2.4, ] kVAs=[1666, 1666, ] normhkVA=1832.6 emerghkVA=2499
New "Transformer.xfm1" windings=2 Xhl=2 Xht=1 buses=[633, 634, ] conns=[wye, wye, ] kVs=[2.4018, 0.27713, ] kVAs=[166.67, 166.67, ] taps=[1, 1, ] wdg=1 %R=0.55 wdg=2 %R=0.55 Xlt=1 phases=1 conns=[wye, wye, ] buses=[633, 634, ] kVs=[2.4018, 0.27713, ] kVAs=[166.67, 166.67, ] normhkVA=183.33 emerghkVA=250
